8
s                      x[A]                      y[A]                      z[A]                      q[e]
O        0.0000066796713040        0.0001343695961517        0.0277460723703165       -0.5468598006666675
O        0.0000107311278308        0.0001426836381284       -0.1121004804618172       -0.5707159585744830
O        0.0000527496571869        0.0001365713915086       -0.1255188378286404       -0.1805916799286149
N        0.0000112694775291        0.4762301574868649       -0.2140655577833280        0.1441687228831192
N        0.0000271945743752        0.6635953471449368       -0.4228447937340781        0.5431663482566568
O        0.0000320179185330       -0.9668561067998702       -0.2003139728721677       -0.9999987722962903
N        0.0000254937466143       -0.7311352798784290       -0.4734004254093168        0.6621539619516819
N        0.0000141462127082       -0.9608913443613992       -0.1418501375408973        0.9486771783745978

        RMSE         2.549362852E-01 kcal/mol

Coordinates in bohr
s                   x[bohr]                   y[bohr]                   z[bohr]                      q[e]
-        0.0000126227493727        0.0002539217363150        0.0524324778370307       -0.5468598006666675
-        0.0000202788926174        0.0002696329986465       -0.2118392066050708       -0.5707159585744830
-        0.0000996824052950        0.0002580825265240       -0.2371962270818860       -0.1805916799286149
+        0.0000212962261070        0.8999445703338245       -0.4045252771038572        0.1441687228831192
+        0.0000513902976676        1.2540134642320440       -0.7990608537331139        0.5431663482566568
-        0.0000605050971345       -1.8270932445781589       -0.3785385478307860       -0.9999987722962903
+        0.0000481761990129       -1.3816454396301883       -0.8945971516988358        0.6621539619516819
+        0.0000267324677309       -1.8158214771660306       -0.2680579108108199        0.9486771783745978
